29
 generated by VMD
 C         1.230000        0.710000        0.000000
 H         2.162000        1.249000        0.000000
 C         0.000000        1.420000        0.000000
 H         2.096068       -1.209926        0.000000
 C        -1.230000        0.710000        0.000000
 H        -2.162000        1.249000        0.000000
 C        -1.230000       -0.710000        0.000000
 H        -2.162000       -1.249000        0.000000
 C         0.000000       -1.420000        0.000000
 Cl       -0.000000       -2.940000        0.000000
 C         1.230000       -0.710000        0.000000
 C         0.000000        2.920000        0.000000
 C        -3.028399        0.749628        0.000000
 C        -3.270879       -0.762884        0.002660
 N        -4.720405       -1.006821        0.019370
 C        -6.694627        0.726449       -0.003470
 C        -7.003388        2.098664       -0.012360
 C        -5.988630        3.056623       -0.006720
 C        -4.648396        2.648514       -0.004210
 C        -4.332907        1.266268       -0.002320
 C        -5.361959        0.288933        0.003080
 H        -2.469557       -1.361317        0.004480
 H        -5.302225       -1.819782        0.043860
 H        -3.923827        3.337806       -0.003900
 H        -6.220738        4.029167       -0.004330
 H        -7.957862        2.396956       -0.023300
 H        -7.433078        0.052771       -0.001770
 C        -7.218789       -0.923997        0.000776
 C         2.962050       -0.709850        0.000000
